# DIS6 input file, prepared by MF5to6 on 3/24/2021 at 11:30:49.

BEGIN Options
  LENGTH_UNITS  METERS
  XORIGIN 1802000.0
  YORIGIN 5861000.0
END Options

BEGIN Dimensions
  NLAY  3
  NROW  18
  NCOL  17
END Dimensions

BEGIN GRIDDATA
  DELR
    CONSTANT    1000.00000        DELR
  DELC
    CONSTANT    1000.00000        DELC
  TOP LAYERED
    INTERNAL  FACTOR    1.000000      IPRN  3
   142.5000       96.00000       62.00000       25.00000       5.000000       3.000000       3.500000       5.000000       4.000000       4.000000    
   4.000000       5.000000       4.500000       5.000000       4.500000       3.500000       3.500000    
   184.5000       153.5000       107.0000       51.50000       5.000000       5.000000       4.000000       3.000000       3.500000       4.000000    
   4.000000       4.000000       3.000000       2.500000       3.500000       3.000000       3.000000    
   211.0000       252.5000       164.5000       53.50000       8.500000       5.000000       4.500000       5.000000       4.000000       4.500000    
   3.500000       3.000000       3.500000       4.500000       4.000000       3.000000       4.000000    
   158.0000       184.5000       162.0000       74.50000       32.50000       5.500000       4.500000       4.500000       4.500000       3.500000    
   3.500000       4.000000       5.000000       3.000000       3.500000       3.000000       2.500000    
   107.0000       107.0000       118.5000       119.5000       46.00000       7.000000       5.000000       5.000000       5.000000       3.500000    
   5.000000       3.500000       3.500000       3.500000       3.500000       4.500000       4.000000    
   66.00000       87.50000       135.5000       126.5000       53.00000       16.00000       6.500000       5.500000       5.000000       5.000000    
   5.000000       3.500000       3.500000       2.500000       1.500000       3.000000       4.000000    
   52.50000       83.50000       120.5000       100.0000       34.00000       11.00000       9.000000       7.000000       15.00000       6.500000    
   5.500000       5.000000       5.500000       4.000000       3.500000       3.000000       4.000000    
   52.00000       53.00000       38.50000       36.00000       28.00000       19.00000       16.00000       20.50000       57.50000       29.00000    
   4.000000       6.000000       4.500000       5.000000       4.500000       3.000000       3.000000    
   55.00000       59.50000       48.00000       64.50000       48.50000       31.00000       30.50000       20.50000       25.50000       11.00000    
   6.000000       6.000000       6.000000       5.000000       5.000000       4.500000       3.000000    
   68.50000       57.00000       51.00000       69.50000       135.0000       117.0000       70.50000       29.50000       23.50000       22.00000    
   9.500000       8.000000       6.500000       6.000000       6.500000       6.000000       4.500000    
   109.0000       53.00000       61.00000       106.0000       92.00000       119.5000       59.50000       39.50000       33.50000       23.00000    
   7.500000       8.000000       8.000000       9.000000       7.000000       7.000000       5.000000    
   104.5000       62.00000       90.50000       112.0000       120.5000       158.0000       104.0000       59.50000       52.00000       28.50000    
   17.00000       9.000000       9.000000       10.00000       6.000000       7.000000       6.000000    
   81.00000       87.00000       102.5000       143.5000       214.0000       229.0000       123.0000       89.00000       73.00000       28.50000    
   16.50000       8.000000       7.000000       8.000000       10.50000       9.000000       7.500000    
   47.00000       54.50000       67.00000       94.50000       140.5000       214.0000       186.5000       108.5000       87.50000       47.50000    
   19.00000       11.50000       8.500000       10.00000       11.00000       11.00000       10.00000    
   27.50000       36.00000       57.00000       90.50000       136.0000       216.5000       226.5000       137.5000       91.50000       83.50000    
   32.50000       11.50000       9.500000       9.000000       8.500000       6.000000       5.000000    
   25.50000       29.50000       41.00000       66.50000       145.0000       236.0000       258.5000       135.0000       148.0000       80.00000    
   23.00000       11.00000       8.500000       7.000000       7.500000       5.500000       5.500000    
   33.50000       51.50000       46.00000       71.00000       162.0000       221.0000       297.5000       233.0000       179.5000       153.0000    
   63.00000       34.50000       12.00000       11.00000       7.000000       7.000000       5.500000    
   28.50000       48.00000       69.00000       101.0000       116.5000       139.0000       278.5000       336.0000       266.0000       121.5000    
   70.00000       33.50000       18.00000       12.00000       8.500000       5.000000       5.000000    
  BOTM LAYERED
    INTERNAL  FACTOR    1.000000      IPRN  3
   19.50000       9.100000       4.100000      -0.000000      -5.000000      -7.000000      -6.500000      -5.000000      -6.000000      -6.000000    
  -6.000000      -5.000000      -5.500000      -5.000000      -5.500000      -6.500000      -6.500000    
   76.00000       42.20000       5.000000      -0.000000      -5.000000      -5.000000      -6.000000      -7.000000      -6.500000      -6.000000    
  -6.000000      -6.000000      -7.000000      -7.500000      -6.500000      -7.000000      -7.000000    
   128.1000       112.8000       84.70000       43.50000      -1.500000      -5.000000      -5.500000      -5.000000      -6.000000      -9.100000    
  -6.500000      -7.000000      -6.500000      -5.500000      -6.000000      -7.000000      -6.000000    
   148.0000       146.7000       131.2000       64.50000       22.50000      -4.500000      -5.500000      -5.500000      -5.500000      -9.000000    
  -8.700000      -8.200000      -7.700000      -7.300000      -6.500000      -7.000000      -7.500000    
   97.00000       97.00000       108.5000       109.5000       36.00000      -3.000000      -5.000000      -5.000000      -5.000000      -9.000000    
  -8.500000      -6.500000      -6.500000      -7.100000      -6.500000      -5.500000      -6.000000    
   56.00000       77.50000       125.5000       116.5000       43.00000       1.500000      -3.500000      -4.500000      -5.000000      -5.000000    
  -7.600000      -6.500000      -6.500000      -7.500000      -8.500000      -7.000000      -6.000000    
   42.50000       73.50000       110.5000       90.00000       24.00000       1.000000      -1.000000      -3.000000       5.000000      -3.500000    
  -7.000000      -6.600000      -4.500000      -6.200000      -6.500000      -7.000000      -6.000000    
   42.00000       43.00000       28.50000       26.00000       18.00000       9.000000       6.000000       10.50000       47.50000       19.00000    
  -6.000000      -5.800000      -5.500000      -5.000000      -5.500000      -7.000000      -7.000000    
   45.00000       47.00000       38.00000       54.50000       38.50000       21.00000       12.40000       10.50000       15.50000       1.000000    
  -4.000000      -5.100000      -4.600000      -5.000000      -5.100000      -5.500000      -7.000000    
   58.50000       47.00000       41.00000       59.50000       125.0000       107.0000       60.50000       19.50000       13.50000       3.100000    
 -0.5000000      -2.000000      -4.000000      -4.000000      -3.500000      -4.400000      -5.500000    
   99.00000       43.00000       51.00000       96.00000       82.00000       109.5000       49.50000       29.50000       23.50000       2.500000    
  -2.500000      -2.000000      -3.100000      -2.700000      -3.000000      -4.100000      -5.000000    
   94.50000       52.00000       80.50000       102.0000       110.5000       148.0000       94.00000       49.50000       42.00000       4.600000    
   2.500000      -1.000000      -1.000000      -2.100000      -4.000000      -3.000000      -4.000000    
   71.00000       77.00000       92.50000       133.5000       204.0000       219.0000       113.0000       79.00000       63.00000       8.000000    
   3.000000      -2.000000      -3.000000      -2.000000      0.5000000      -1.000000      -2.500000    
   37.00000       44.50000       57.00000       84.50000       130.5000       204.0000       176.5000       98.50000       77.50000       37.50000    
   5.100000       1.500000      -1.500000       0.000000       1.000000       1.000000       0.000000    
   17.50000       26.00000       47.00000       80.50000       126.0000       206.5000       216.5000       127.5000       81.50000       73.10000    
   22.50000       1.500000     -0.5000000      -1.000000      -1.500000      -4.000000      -5.000000    
   15.50000       19.50000       31.00000       56.50000       135.0000       226.0000       240.9000       125.0000       138.0000       70.00000    
   13.00000       1.000000      -1.500000      -3.000000      -2.500000      -4.500000      -4.500000    
   23.50000       41.50000       36.00000       61.00000       152.0000       211.0000       287.5000       204.2000       169.5000       138.6000    
   53.00000       5.600000       2.000000      0.5000000      -3.000000      -3.000000      -4.500000    
   18.50000       38.00000       59.00000       91.00000       106.5000       129.0000       268.5000       326.0000       256.0000       105.4000    
   60.00000       9.100000       7.000000       2.000000      -1.500000      -5.000000      -5.000000    
    INTERNAL  FACTOR    1.000000      IPRN  3
   4.500000      -5.900000      -10.90000      -15.00000      -20.00000      -22.00000      -21.50000      -20.00000      -21.00000      -21.00000    
  -21.00000      -20.00000      -20.50000      -20.00000      -20.50000      -21.50000      -21.50000    
   61.00000       27.20000      -10.00000      -15.00000      -20.00000      -20.00000      -21.00000      -22.00000      -21.50000      -21.00000    
  -21.00000      -21.00000      -22.00000      -22.50000      -21.50000      -22.00000      -22.00000    
   113.1000       97.80000       69.70000       28.50000      -16.50000      -20.00000      -20.50000      -20.00000      -21.00000      -24.10000    
  -21.50000      -22.00000      -21.50000      -20.50000      -21.00000      -22.00000      -21.00000    
   133.0000       131.7000       116.2000       49.50000       7.500000      -19.50000      -20.50000      -20.50000      -20.50000      -24.00000    
  -23.70000      -23.20000      -22.70000      -22.30000      -21.50000      -22.00000      -22.50000    
   82.00000       82.00000       93.50000       94.50000       21.00000      -18.00000      -20.00000      -20.00000      -20.00000      -24.00000    
  -23.50000      -21.50000      -21.50000      -22.10000      -21.50000      -20.50000      -21.00000    
   41.00000       62.50000       110.5000       101.5000       28.00000      -13.50000      -18.50000      -19.50000      -20.00000      -20.00000    
  -22.60000      -21.50000      -21.50000      -22.50000      -23.50000      -22.00000      -21.00000    
   27.50000       58.50000       95.50000       75.00000       9.000000      -14.00000      -16.00000      -18.00000      -10.00000      -18.50000    
  -22.00000      -21.60000      -19.50000      -21.20000      -21.50000      -22.00000      -21.00000    
   27.00000       28.00000       13.50000       11.00000       3.000000      -6.000000      -9.000000      -4.500000       32.50000       4.000000    
  -21.00000      -20.80000      -20.50000      -20.00000      -20.50000      -22.00000      -22.00000    
   30.00000       32.00000       23.00000       39.50000       23.50000       6.000000      -2.600000      -4.500000      0.5000000      -14.00000    
  -19.00000      -20.10000      -19.60000      -20.00000      -20.10000      -20.50000      -22.00000    
   43.50000       32.00000       26.00000       44.50000       110.0000       92.00000       45.50000       4.500000      -1.500000      -11.90000    
  -15.50000      -17.00000      -19.00000      -19.00000      -18.50000      -19.40000      -20.50000    
   84.00000       28.00000       36.00000       81.00000       67.00000       94.50000       34.50000       14.50000       8.500000      -12.50000    
  -17.50000      -17.00000      -18.10000      -17.70000      -18.00000      -19.10000      -20.00000    
   79.50000       37.00000       65.50000       87.00000       95.50000       133.0000       79.00000       34.50000       27.00000      -10.40000    
  -12.50000      -16.00000      -16.00000      -17.10000      -19.00000      -18.00000      -19.00000    
   56.00000       62.00000       77.50000       118.5000       189.0000       204.0000       98.00000       64.00000       48.00000      -7.000000    
  -12.00000      -17.00000      -18.00000      -17.00000      -14.50000      -16.00000      -17.50000    
   22.00000       29.50000       42.00000       69.50000       115.5000       189.0000       161.5000       83.50000       62.50000       22.50000    
  -9.900000      -13.50000      -16.50000      -15.00000      -14.00000      -14.00000      -15.00000    
   2.500000       11.00000       32.00000       65.50000       111.0000       191.5000       201.5000       112.5000       66.50000       58.10000    
   7.500000      -13.50000      -15.50000      -16.00000      -16.50000      -19.00000      -20.00000    
  0.5000000       4.500000       16.00000       41.50000       120.0000       211.0000       225.9000       110.0000       123.0000       55.00000    
  -2.000000      -14.00000      -16.50000      -18.00000      -17.50000      -19.50000      -19.50000    
   8.500000       26.50000       21.00000       46.00000       137.0000       196.0000       272.5000       189.2000       154.5000       123.6000    
   38.00000      -9.400000      -13.00000      -14.50000      -18.00000      -18.00000      -19.50000    
   3.500000       23.00000       44.00000       76.00000       91.50000       114.0000       253.5000       311.0000       241.0000       90.40000    
   45.00000      -5.900000      -8.000000      -13.00000      -16.50000      -20.00000      -20.00000    
    INTERNAL  FACTOR    1.000000      IPRN  3
  -5.500000      -26.30000      -60.90000      -65.00000      -70.00000      -72.00000      -71.50000      -70.00000      -71.00000      -71.00000    
  -71.00000      -70.00000      -70.50000      -70.00000      -70.50000      -71.50000      -71.50000    
   51.00000       17.20000      -20.00000      -56.70000      -70.00000      -70.00000      -71.00000      -72.00000      -71.50000      -71.00000    
  -71.00000      -71.00000      -72.00000      -72.50000      -71.50000      -72.00000      -72.00000    
   103.1000       87.80000       59.70000       18.50000      -38.20000      -70.00000      -70.50000      -70.00000      -71.00000      -70.50000    
  -71.50000      -72.00000      -71.50000      -70.50000      -71.00000      -72.00000      -71.00000    
   123.0000       121.7000       106.2000       39.50000      -2.500000      -69.50000      -70.50000      -70.50000      -70.50000      -71.50000    
  -71.50000      -71.00000      -70.00000      -72.00000      -71.50000      -72.00000      -72.50000    
   72.00000       72.00000       83.50000       84.50000       11.00000      -44.00000      -70.00000      -70.00000      -70.00000      -71.50000    
  -70.00000      -71.50000      -71.50000      -71.50000      -71.50000      -70.50000      -71.00000    
   31.00000       52.50000       100.5000       91.50000       18.00000      -23.50000      -66.50000      -46.80000      -51.30000      -70.00000    
  -70.00000      -71.50000      -71.50000      -72.50000      -73.50000      -72.00000      -71.00000    
   17.50000       48.50000       85.50000       65.00000      -1.000000      -24.00000      -26.00000      -28.00000      -20.00000      -68.50000    
  -69.50000      -70.00000      -69.50000      -71.00000      -71.50000      -72.00000      -71.00000    
   17.00000       18.00000       3.500000       1.000000      -7.000000      -16.00000      -19.00000      -14.50000       22.50000      -6.000000    
  -71.00000      -69.00000      -70.50000      -70.00000      -70.50000      -72.00000      -72.00000    
   20.00000       22.00000       13.00000       29.50000       13.50000      -4.000000      -12.60000      -14.50000      -9.500000      -37.60000    
  -69.00000      -69.00000      -69.00000      -70.00000      -70.00000      -70.50000      -72.00000    
   33.50000       22.00000       16.00000       34.50000       100.0000       82.00000       35.50000      -5.500000      -11.50000      -61.90000    
  -65.50000      -67.00000      -68.50000      -69.00000      -68.50000      -69.00000      -70.50000    
   74.00000       18.00000       26.00000       71.00000       57.00000       84.50000       24.50000       4.500000      -1.500000      -62.50000    
  -67.50000      -67.00000      -67.00000      -66.00000      -68.00000      -68.00000      -70.00000    
   69.50000       27.00000       55.50000       77.00000       85.50000       123.0000       69.00000       24.50000       17.00000      -60.40000    
  -62.50000      -66.00000      -66.00000      -65.00000      -69.00000      -68.00000      -69.00000    
   46.00000       52.00000       67.50000       108.5000       179.0000       194.0000       88.00000       54.00000       38.00000      -31.70000    
  -62.00000      -67.00000      -68.00000      -67.00000      -64.50000      -66.00000      -67.50000    
   12.00000       19.50000       32.00000       59.50000       105.5000       179.0000       151.5000       73.50000       52.50000       12.50000    
  -59.90000      -63.50000      -66.50000      -65.00000      -64.00000      -64.00000      -65.00000    
  -7.500000       1.000000       22.00000       55.50000       101.0000       181.5000       191.5000       102.5000       56.50000       48.10000    
  -2.500000      -47.90000      -65.50000      -66.00000      -66.50000      -69.00000      -70.00000    
  -9.500000      -5.500000       6.000000       31.50000       110.0000       201.0000       215.9000       100.0000       113.0000       45.00000    
  -12.00000      -24.00000      -66.50000      -68.00000      -67.50000      -69.50000      -69.50000    
  -1.500000       16.50000       11.00000       36.00000       127.0000       186.0000       262.5000       179.2000       144.5000       113.6000    
   28.00000      -19.40000      -63.00000      -64.00000      -68.00000      -68.00000      -69.50000    
  -6.500000       13.00000       34.00000       66.00000       81.50000       104.0000       243.5000       301.0000       231.0000       80.40000    
   35.00000      -24.00000      -58.00000      -63.00000      -66.50000      -70.00000      -70.00000    
  IDOMAIN LAYERED
    INTERNAL  FACTOR  1  IPRN  5    Idomain layer 1
    1    1    1    1    1    1    1    1    1    1    1    1    1    1    1    1    1
    1    1    1    1    1    1    1    1    1    1    1    1    1    1    1    1    1
    1    1    1    1    1    1    1    1    1    1    1    1    1    1    1    1    1
    0    1    1    0    0    1    1    1    1    1    1    1    1    1    1    1    1
    0    0    0    0    0    1    1    1    1    1    1    1    1    1    1    1    1
    0    0    0    0    0    1    1    1    1    1    1    1    1    1    1    1    1
    0    0    0    0    0    1    1    1    0    1    1    1    1    1    1    1    1
    0    0    0    0    0    0    0    0    0    0    1    1    1    1    1    1    1
    0    0    0    0    0    0    0    0    0    1    1    1    1    1    1    1    1
    0    0    0    0    0    0    0    0    0    1    1    1    1    1    1    1    1
    0    0    0    0    0    0    0    0    0    1    1    1    1    1    1    1    1
    0    0    0    0    0    0    0    0    0    1    1    1    1    1    1    1    1
    0    0    0    0    0    0    0    0    0    1    1    1    1    1    1    1    1
    0    0    0    0    0    0    0    0    0    0    1    1    1    1    1    1    1
    0    0    0    0    0    0    0    0    0    0    0    1    1    1    1    1    1
    0    0    0    0    0    0    0    0    0    0    0    1    1    1    1    1    1
    0    0    0    0    0    0    0    0    0    0    0    1    1    1    1    1    1
    0    0    0    0    0    0    0    0    0    0    0    1    1    1    1    1    1
    INTERNAL  FACTOR  1  IPRN  5    Idomain layer 2
    0    1    1    1    1    1    1    1    1    1    1    1    1    1    1    1    1
    0    0    1    1    1    1    1    1    1    1    1    1    1    1    1    1    1
    0    0    0    0    1    1    1    1    1    1    1    1    1    1    1    1    1
    0    0    0    0    0    1    1    1    1    1    1    1    1    1    1    1    1
    0    0    0    0    0    1    1    1    1    1    1    1    1    1    1    1    1
    0    0    0    0    0    1    1    1    1    1    1    1    1    1    1    1    1
    0    0    0    0    0    0    1    0    0    1    1    1    1    1    1    1    1
    0    0    0    0    0    0    0    0    0    0    1    1    1    1    1    1    1
    0    0    0    0    0    0    0    0    0    1    1    1    1    1    1    1    1
    0    0    0    0    0    0    0    0    0    1    1    1    1    1    1    1    1
    0    0    0    0    0    0    0    0    0    1    1    1    1    1    1    1    1
    0    0    0    0    0    0    0    0    0    1    1    1    1    1    1    1    1
    0    0    0    0    0    0    0    0    0    1    1    1    1    1    1    1    1
    0    0    0    0    0    0    0    0    0    0    1    1    1    1    1    1    1
    0    0    0    0    0    0    0    0    0    0    0    1    1    1    1    1    1
    0    0    0    0    0    0    0    0    0    0    0    1    1    1    1    1    1
    0    0    0    0    0    0    0    0    0    0    0    1    1    1    1    1    1
    0    0    0    0    0    0    0    0    0    0    0    1    1    1    1    1    1
    INTERNAL  FACTOR  1  IPRN  5    Idomain layer 3
    0    1    1    1    1    1    1    1    1    1    1    1    1    1    1    1    1
    0    0    0    1    1    1    1    1    1    1    1    1    1    1    1    1    1
    0    0    0    0    1    1    1    1    1    1    1    1    1    1    1    1    1
    0    0    0    0    0    1    1    1    1    1    1    1    1    1    1    1    1
    0    0    0    0    0    1    1    1    1    1    1    1    1    1    1    1    1
    0    0    0    0    0    1    1    1    1    1    1    1    1    1    1    1    1
    0    0    0    0    0    0    0    0    0    1    1    1    1    1    1    1    1
    0    0    0    0    0    0    0    0    0    0    1    1    1    1    1    1    1
    0    0    0    0    0    0    0    0    0    1    1    1    1    1    1    1    1
    0    0    0    0    0    0    0    0    0    1    1    1    1    1    1    1    1
    0    0    0    0    0    0    0    0    0    1    1    1    1    1    1    1    1
    0    0    0    0    0    0    0    0    0    1    1    1    1    1    1    1    1
    0    0    0    0    0    0    0    0    0    1    1    1    1    1    1    1    1
    0    0    0    0    0    0    0    0    0    0    1    1    1    1    1    1    1
    0    0    0    0    0    0    0    0    0    0    0    1    1    1    1    1    1
    0    0    0    0    0    0    0    0    0    0    0    1    1    1    1    1    1
    0    0    0    0    0    0    0    0    0    0    0    0    1    1    1    1    1
    0    0    0    0    0    0    0    0    0    0    0    1    1    1    1    1    1
END GRIDDATA
