# IC6 input file, prepared by MF5to6 on 3/24/2021 at 11:30:49.

BEGIN Options
END Options

BEGIN GRIDDATA
  STRT LAYERED
    INTERNAL  FACTOR    1.000000      IPRN  1
   142.5000       96.00000       62.00000       25.00000       5.000000       3.000000       3.500000       5.000000       4.000000       4.000000
   4.000000       5.000000       4.500000       5.000000       4.500000       3.500000       3.500000
   184.5000       153.5000       107.0000       51.50000       5.000000       5.000000       4.000000       3.000000       3.500000       4.000000
   4.000000       4.000000       3.000000       2.500000       3.500000       3.000000       3.000000
   211.0000       252.5000       164.5000       53.50000       8.500000       5.000000       4.500000       5.000000       4.000000       4.500000
   3.500000       3.000000       3.500000       4.500000       4.000000       3.000000       4.000000
   158.0000       184.5000       162.0000       74.50000       32.50000       5.500000       4.500000       4.500000       4.500000       3.500000
   3.500000       4.000000       5.000000       3.000000       3.500000       3.000000       2.500000
   107.0000       107.0000       118.5000       119.5000       46.00000       7.000000       5.000000       5.000000       5.000000       3.500000
   5.000000       3.500000       3.500000       3.500000       3.500000       4.500000       4.000000
   66.00000       87.50000       135.5000       126.5000       53.00000       16.00000       6.500000       5.500000       5.000000       5.000000
   5.000000       3.500000       3.500000       2.500000       1.500000       3.000000       4.000000
   52.50000       83.50000       120.5000       100.0000       34.00000       11.00000       9.000000       7.000000       15.00000       6.500000
   5.500000       5.000000       5.500000       4.000000       3.500000       3.000000       4.000000
   52.00000       53.00000       38.50000       36.00000       28.00000       19.00000       16.00000       20.50000       57.50000       29.00000
   4.000000       6.000000       4.500000       5.000000       4.500000       3.000000       3.000000
   55.00000       59.50000       48.00000       64.50000       48.50000       31.00000       30.50000       20.50000       25.50000       11.00000
   6.000000       6.000000       6.000000       5.000000       5.000000       4.500000       3.000000
   68.50000       57.00000       51.00000       69.50000       135.0000       117.0000       70.50000       29.50000       23.50000       22.00000
   9.500000       8.000000       6.500000       6.000000       6.500000       6.000000       4.500000
   109.0000       53.00000       61.00000       106.0000       92.00000       119.5000       59.50000       39.50000       33.50000       23.00000
   7.500000       8.000000       8.000000       9.000000       7.000000       7.000000       5.000000
   104.5000       62.00000       90.50000       112.0000       120.5000       158.0000       104.0000       59.50000       52.00000       28.50000
   17.00000       9.000000       9.000000       10.00000       6.000000       7.000000       6.000000
   81.00000       87.00000       102.5000       143.5000       214.0000       229.0000       123.0000       89.00000       73.00000       28.50000
   16.50000       8.000000       7.000000       8.000000       10.50000       9.000000       7.500000
   47.00000       54.50000       67.00000       94.50000       140.5000       214.0000       186.5000       108.5000       87.50000       47.50000
   19.00000       11.50000       8.500000       10.00000       11.00000       11.00000       10.00000
   27.50000       36.00000       57.00000       90.50000       136.0000       216.5000       226.5000       137.5000       91.50000       83.50000
   32.50000       11.50000       9.500000       9.000000       8.500000       6.000000       5.000000
   25.50000       29.50000       41.00000       66.50000       145.0000       236.0000       258.5000       135.0000       148.0000       80.00000
   23.00000       11.00000       8.500000       7.000000       7.500000       5.500000       5.500000
   33.50000       51.50000       46.00000       71.00000       162.0000       221.0000       297.5000       233.0000       179.5000       153.0000
   63.00000       34.50000       12.00000       11.00000       7.000000       7.000000       5.500000
   28.50000       48.00000       69.00000       101.0000       116.5000       139.0000       278.5000       336.0000       266.0000       121.5000
   70.00000       33.50000       18.00000       12.00000       8.500000       5.000000       5.000000
    INTERNAL  FACTOR    1.000000      IPRN  1
   142.5000       96.00000       62.00000       25.00000       5.000000       3.000000       3.500000       5.000000       4.000000       4.000000
   4.000000       5.000000       4.500000       5.000000       4.500000       3.500000       3.500000
   184.5000       153.5000       107.0000       51.50000       5.000000       5.000000       4.000000       3.000000       3.500000       4.000000
   4.000000       4.000000       3.000000       2.500000       3.500000       3.000000       3.000000
   211.0000       252.5000       164.5000       53.50000       8.500000       5.000000       4.500000       5.000000       4.000000       4.500000
   3.500000       3.000000       3.500000       4.500000       4.000000       3.000000       4.000000
   158.0000       184.5000       162.0000       74.50000       32.50000       5.500000       4.500000       4.500000       4.500000       3.500000
   3.500000       4.000000       5.000000       3.000000       3.500000       3.000000       2.500000
   107.0000       107.0000       118.5000       119.5000       46.00000       7.000000       5.000000       5.000000       5.000000       3.500000
   5.000000       3.500000       3.500000       3.500000       3.500000       4.500000       4.000000
   66.00000       87.50000       135.5000       126.5000       53.00000       16.00000       6.500000       5.500000       5.000000       5.000000
   5.000000       3.500000       3.500000       2.500000       1.500000       3.000000       4.000000
   52.50000       83.50000       120.5000       100.0000       34.00000       11.00000       9.000000       7.000000       15.00000       6.500000
   5.500000       5.000000       5.500000       4.000000       3.500000       3.000000       4.000000
   52.00000       53.00000       38.50000       36.00000       28.00000       19.00000       16.00000       20.50000       57.50000       29.00000
   4.000000       6.000000       4.500000       5.000000       4.500000       3.000000       3.000000
   55.00000       59.50000       48.00000       64.50000       48.50000       31.00000       30.50000       20.50000       25.50000       11.00000
   6.000000       6.000000       6.000000       5.000000       5.000000       4.500000       3.000000
   68.50000       57.00000       51.00000       69.50000       135.0000       117.0000       70.50000       29.50000       23.50000       22.00000
   9.500000       8.000000       6.500000       6.000000       6.500000       6.000000       4.500000
   109.0000       53.00000       61.00000       106.0000       92.00000       119.5000       59.50000       39.50000       33.50000       23.00000
   7.500000       8.000000       8.000000       9.000000       7.000000       7.000000       5.000000
   104.5000       62.00000       90.50000       112.0000       120.5000       158.0000       104.0000       59.50000       52.00000       28.50000
   17.00000       9.000000       9.000000       10.00000       6.000000       7.000000       6.000000
   81.00000       87.00000       102.5000       143.5000       214.0000       229.0000       123.0000       89.00000       73.00000       28.50000
   16.50000       8.000000       7.000000       8.000000       10.50000       9.000000       7.500000
   47.00000       54.50000       67.00000       94.50000       140.5000       214.0000       186.5000       108.5000       87.50000       47.50000
   19.00000       11.50000       8.500000       10.00000       11.00000       11.00000       10.00000
   27.50000       36.00000       57.00000       90.50000       136.0000       216.5000       226.5000       137.5000       91.50000       83.50000
   32.50000       11.50000       9.500000       9.000000       8.500000       6.000000       5.000000
   25.50000       29.50000       41.00000       66.50000       145.0000       236.0000       258.5000       135.0000       148.0000       80.00000
   23.00000       11.00000       8.500000       7.000000       7.500000       5.500000       5.500000
   33.50000       51.50000       46.00000       71.00000       162.0000       221.0000       297.5000       233.0000       179.5000       153.0000
   63.00000       34.50000       12.00000       11.00000       7.000000       7.000000       5.500000
   28.50000       48.00000       69.00000       101.0000       116.5000       139.0000       278.5000       336.0000       266.0000       121.5000
   70.00000       33.50000       18.00000       12.00000       8.500000       5.000000       5.000000
    INTERNAL  FACTOR    1.000000      IPRN  1
   142.5000       96.00000       62.00000       25.00000       5.000000       3.000000       3.500000       5.000000       4.000000       4.000000
   4.000000       5.000000       4.500000       5.000000       4.500000       3.500000       3.500000
   184.5000       153.5000       107.0000       51.50000       5.000000       5.000000       4.000000       3.000000       3.500000       4.000000
   4.000000       4.000000       3.000000       2.500000       3.500000       3.000000       3.000000
   211.0000       252.5000       164.5000       53.50000       8.500000       5.000000       4.500000       5.000000       4.000000       4.500000
   3.500000       3.000000       3.500000       4.500000       4.000000       3.000000       4.000000
   158.0000       184.5000       162.0000       74.50000       32.50000       5.500000       4.500000       4.500000       4.500000       3.500000
   3.500000       4.000000       5.000000       3.000000       3.500000       3.000000       2.500000
   107.0000       107.0000       118.5000       119.5000       46.00000       7.000000       5.000000       5.000000       5.000000       3.500000
   5.000000       3.500000       3.500000       3.500000       3.500000       4.500000       4.000000
   66.00000       87.50000       135.5000       126.5000       53.00000       16.00000       6.500000       5.500000       5.000000       5.000000
   5.000000       3.500000       3.500000       2.500000       1.500000       3.000000       4.000000
   52.50000       83.50000       120.5000       100.0000       34.00000       11.00000       9.000000       7.000000       15.00000       6.500000
   5.500000       5.000000       5.500000       4.000000       3.500000       3.000000       4.000000
   52.00000       53.00000       38.50000       36.00000       28.00000       19.00000       16.00000       20.50000       57.50000       29.00000
   4.000000       6.000000       4.500000       5.000000       4.500000       3.000000       3.000000
   55.00000       59.50000       48.00000       64.50000       48.50000       31.00000       30.50000       20.50000       25.50000       11.00000
   6.000000       6.000000       6.000000       5.000000       5.000000       4.500000       3.000000
   68.50000       57.00000       51.00000       69.50000       135.0000       117.0000       70.50000       29.50000       23.50000       22.00000
   9.500000       8.000000       6.500000       6.000000       6.500000       6.000000       4.500000
   109.0000       53.00000       61.00000       106.0000       92.00000       119.5000       59.50000       39.50000       33.50000       23.00000
   7.500000       8.000000       8.000000       9.000000       7.000000       7.000000       5.000000
   104.5000       62.00000       90.50000       112.0000       120.5000       158.0000       104.0000       59.50000       52.00000       28.50000
   17.00000       9.000000       9.000000       10.00000       6.000000       7.000000       6.000000
   81.00000       87.00000       102.5000       143.5000       214.0000       229.0000       123.0000       89.00000       73.00000       28.50000
   16.50000       8.000000       7.000000       8.000000       10.50000       9.000000       7.500000
   47.00000       54.50000       67.00000       94.50000       140.5000       214.0000       186.5000       108.5000       87.50000       47.50000
   19.00000       11.50000       8.500000       10.00000       11.00000       11.00000       10.00000
   27.50000       36.00000       57.00000       90.50000       136.0000       216.5000       226.5000       137.5000       91.50000       83.50000
   32.50000       11.50000       9.500000       9.000000       8.500000       6.000000       5.000000
   25.50000       29.50000       41.00000       66.50000       145.0000       236.0000       258.5000       135.0000       148.0000       80.00000
   23.00000       11.00000       8.500000       7.000000       7.500000       5.500000       5.500000
   33.50000       51.50000       46.00000       71.00000       162.0000       221.0000       297.5000       233.0000       179.5000       153.0000
   63.00000       34.50000       12.00000       11.00000       7.000000       7.000000       5.500000
   28.50000       48.00000       69.00000       101.0000       116.5000       139.0000       278.5000       336.0000       266.0000       121.5000
   70.00000       33.50000       18.00000       12.00000       8.500000       5.000000       5.000000
END GRIDDATA
