# IMS6 input file, prepared by MF5to6 on 3/24/2021 at 11:30:49.

BEGIN Options
  PRINT_OPTION  SUMMARY
  COMPLEXITY  SIMPLE
END Options

BEGIN Nonlinear
  OUTER_DVCLOSE   0.1000000E-04
  OUTER_MAXIMUM  100
  UNDER_RELAXATION  DBD
  UNDER_RELAXATION_THETA   0.8500000
  UNDER_RELAXATION_KAPPA   0.1000000E-04
  UNDER_RELAXATION_GAMMA    0.000000
  UNDER_RELAXATION_MOMENTUM   0.1000000
  BACKTRACKING_NUMBER  50
  BACKTRACKING_TOLERANCE    1.100000
  BACKTRACKING_REDUCTION_FACTOR   0.7000000
  BACKTRACKING_RESIDUAL_LIMIT    100.0000
END Nonlinear

BEGIN LINEAR
  INNER_MAXIMUM  500
  INNER_DVCLOSE   0.1000000E-05
  INNER_RCLOSE   0.1000000
  LINEAR_ACCELERATION  BICGSTAB
  PRECONDITIONER_LEVELS  1
  PRECONDITIONER_DROP_TOLERANCE   0.1000000E-02
  NUMBER_ORTHOGONALIZATIONS  2
  REORDERING_METHOD  RCM
END LINEAR
