#xll:1802000; yll:5861000; rotation:0; proj4_str:epsg:2193; units:meters; lenuni:2; start_datetime:01-01-2000
BEGIN Options
  LIST       h.lst
  NEWTON
END Options

BEGIN Packages
  DIS6       h.dis
  IC6        h.ic
  NPF6       h.npf
  OC6        h.oc
  RCH6       h.rch
  DRN6       h.drn
END Packages

