# NPF6 input file, prepared by MF5to6 on 3/24/2021 at 11:30:49.

BEGIN Options
  SAVE_FLOWS  h.cbb
END Options

BEGIN GRIDDATA
  Icelltype LAYERED
    CONSTANT  1
    CONSTANT  0
    CONSTANT  0
  K  LAYERED
    CONSTANT    10.0000000
    CONSTANT    10.0000000
    CONSTANT    10.0000000
  K33  LAYERED
    CONSTANT    1.00000000
    CONSTANT    1.00000000
    CONSTANT    1.00000000
END GRIDDATA
