# OC6 input file, prepared by MF5to6 on 3/24/2021 at 11:30:49.

BEGIN Options
  BUDGET FILEOUT  h.cbb
  HEAD FILEOUT  h.hds
  HEAD PRINT_FORMAT  COLUMNS 10  WIDTH 11  DIGITS 4  GENERAL
END Options

BEGIN PERIOD 1
  SAVE BUDGET ALL
  PRINT BUDGET ALL
  SAVE HEAD ALL
END PERIOD
