# RCH6 input file, prepared by MF5to6 on 3/24/2021 at 11:30:49.

BEGIN Options
  READASARRAYS
  SAVE_FLOWS
END Options

BEGIN PERIOD 1
  RECHARGE
    INTERNAL  FACTOR  1.0  IPRN   12
  0.000000       0.000000       0.000000       0.000000       0.000000       0.000000
  0.000000       0.000000       0.000000       0.000000       0.000000       0.000000
  0.000000       0.000000       0.000000      0.9800000E-03  0.9700000E-03
 0.2000000E-03  0.2300000E-03  0.4100000E-03  0.6000000E-03  0.7800000E-03  0.9600000E-03
 0.1000000E-02  0.9900000E-03  0.9700000E-03  0.9600000E-03  0.9600000E-03  0.9100000E-03
 0.9500000E-03  0.5800000E-03  0.1000000E-02  0.9000000E-03  0.1000000E-02
 0.2200000E-03  0.2000000E-03  0.3300000E-03  0.5100000E-03  0.6900000E-03  0.8800000E-03
 0.1100000E-02  0.1100000E-02  0.1000000E-02  0.1100000E-02  0.1000000E-02  0.6900000E-03
 0.7600000E-03  0.1000000E-02  0.1100000E-02  0.1100000E-02  0.8200000E-03
 0.2400000E-03  0.2300000E-03  0.2500000E-03  0.4300000E-03  0.6100000E-03  0.7900000E-03
 0.9700000E-03  0.1200000E-02  0.1100000E-02  0.1300000E-02  0.8600000E-03  0.4600000E-03
 0.5500000E-03  0.7600000E-03  0.7700000E-03  0.1000000E-02  0.1100000E-02
 0.2700000E-03  0.2500000E-03  0.2300000E-03  0.3500000E-03  0.5300000E-03  0.6700000E-03
 0.8400000E-03  0.9200000E-03  0.1200000E-02  0.1000000E-02  0.5200000E-03  0.8000000E-03
 0.8200000E-03  0.6300000E-03  0.7700000E-03  0.8200000E-03  0.7800000E-03
 0.2800000E-03  0.2700000E-03  0.2500000E-03  0.2400000E-03  0.2800000E-03  0.3700000E-03
 0.7700000E-03  0.1100000E-02  0.1100000E-02  0.8200000E-03  0.7400000E-03  0.1200000E-02
 0.9300000E-03  0.3900000E-03  0.7800000E-03  0.1000000E-02  0.1000000E-02
 0.2800000E-03  0.2900000E-03  0.2800000E-03  0.2900000E-03  0.2700000E-03  0.2700000E-03
 0.3100000E-03  0.2300000E-03  0.7900000E-03  0.9000000E-03  0.1000000E-02  0.7500000E-03
 0.1000000E-02  0.2900000E-03  0.2900000E-03  0.3600000E-03  0.7900000E-03
 0.2800000E-03  0.2900000E-03  0.3000000E-03  0.2900000E-03  0.3000000E-03  0.4900000E-03
 0.6900000E-03  0.7500000E-03  0.2800000E-03  0.2900000E-03  0.7400000E-03  0.2200000E-03
 0.2800000E-03  0.2800000E-03  0.2700000E-03  0.3000000E-03  0.3600000E-03
 0.2800000E-03  0.2300000E-03  0.2900000E-03  0.2700000E-03  0.3400000E-03  0.5600000E-03
 0.4600000E-03  0.2200000E-03  0.3300000E-03  0.3000000E-03  0.3900000E-03  0.2700000E-03
 0.3100000E-03  0.2600000E-03  0.2400000E-03  0.2700000E-03  0.2700000E-03
 0.2800000E-03  0.2800000E-03  0.2800000E-03  0.3100000E-03  0.2900000E-03  0.2800000E-03
 0.3700000E-03  0.7100000E-03  0.5000000E-03  0.4500000E-03  0.6800000E-03  0.2100000E-03
 0.2000000E-03  0.2100000E-03  0.1800000E-03  0.2500000E-03  0.2300000E-03
 0.2700000E-03  0.4200000E-03  0.3000000E-03  0.3000000E-03  0.3100000E-03  0.3000000E-03
 0.2900000E-03  0.2700000E-03  0.3000000E-03  0.3300000E-03  0.4100000E-03  0.2400000E-03
 0.2200000E-03  0.2600000E-03  0.2100000E-03  0.2000000E-03  0.3000000E-03
 0.2700000E-03  0.8800000E-03  0.3100000E-03  0.2900000E-03  0.3000000E-03  0.2600000E-03
 0.2700000E-03  0.2300000E-03  0.3100000E-03  0.4100000E-03  0.7400000E-03  0.3000000E-03
 0.2800000E-03  0.2600000E-03  0.2600000E-03  0.2000000E-03  0.1500000E-03
 0.2700000E-03  0.2800000E-03  0.2900000E-03  0.3100000E-03  0.2600000E-03  0.2700000E-03
 0.2600000E-03  0.2400000E-03  0.2200000E-03  0.3900000E-03  0.8800000E-03  0.9100000E-03
 0.1600000E-03  0.2100000E-03  0.2300000E-03  0.2500000E-03  0.1600000E-03
 0.2600000E-03  0.2700000E-03  0.2900000E-03  0.3000000E-03  0.2900000E-03  0.2600000E-03
 0.2700000E-03  0.2600000E-03  0.2600000E-03  0.2600000E-03  0.4200000E-03  0.7200000E-03
 0.2700000E-03  0.2000000E-03  0.1900000E-03  0.2200000E-03  0.2200000E-03
 0.2500000E-03  0.2700000E-03  0.2800000E-03  0.2900000E-03  0.3000000E-03  0.2800000E-03
 0.2600000E-03  0.2700000E-03  0.2500000E-03  0.2600000E-03  0.2800000E-03  0.1500000E-03
 0.1400000E-03  0.2000000E-03  0.1700000E-03  0.1800000E-03  0.2000000E-03
 0.2500000E-03  0.2600000E-03  0.2700000E-03  0.2800000E-03  0.3000000E-03  0.3000000E-03
 0.2700000E-03  0.2800000E-03  0.2800000E-03  0.2700000E-03  0.3800000E-03  0.2800000E-03
 0.1800000E-03  0.1700000E-03  0.1400000E-03  0.1300000E-03  0.1900000E-03
 0.2400000E-03  0.2500000E-03  0.2600000E-03  0.2800000E-03  0.2900000E-03  0.3000000E-03
 0.3000000E-03  0.2800000E-03  0.2700000E-03  0.2800000E-03  0.2600000E-03  0.4600000E-03
 0.7500000E-03  0.2500000E-03  0.2600000E-03  0.1900000E-03  0.2100000E-03
 0.2300000E-03  0.2400000E-03  0.2600000E-03  0.2700000E-03  0.2800000E-03  0.2900000E-03
 0.3000000E-03  0.3000000E-03  0.2800000E-03  0.2600000E-03  0.2400000E-03  0.6600000E-03
 0.7600000E-03  0.4900000E-03  0.1900000E-03  0.1600000E-03  0.2000000E-03
END PERIOD
