# TDIS6 input file, prepared by MF5to6 on 3/24/2021 at 11:30:49.

BEGIN Options
  TIME_UNITS DAYS
  START_DATE_TIME 01-01-2000
END Options

BEGIN Dimensions
  NPER 1
END Dimensions

BEGIN PERIODDATA
    1.0000000               1    1.0000000      Items: PERLEN NSTP TSMULT
END PERIODDATA
