# Simulation name file for MODFLOW 6 prepared by MF5to6

BEGIN Options
END Options

BEGIN TIMING
  TDIS6  h.tdis
END TIMING

BEGIN MODELS
  GWF6  h.nam  h
END MODELS

BEGIN EXCHANGES
END EXCHANGES

BEGIN SOLUTIONGROUP 1
  MXITER  1
  IMS6  h.ims  h
END SOLUTIONGROUP
